       294
2     31.973660000     34.080000000    100.000000000
C        31.358779870     28.045000000     23.350000000
C         6.763658400     23.785000000     23.350000000
C         5.533902330      8.875000000     23.350000000
C        19.061219140     19.525000000     23.350000000
S         4.304146260     15.265000000     23.350000000
C        30.129023800      7.455000000     23.350000000
C         9.223170550      6.745000000     23.350000000
P         1.844634110     32.305000000     23.350000000
C         0.614878040     21.655000000     23.350000000
C        12.912438770     33.015000000     23.350000000
C        12.912438770      3.195000000     23.350000000
C        27.669511650     11.715000000     23.350000000
C         4.304146260      6.745000000     23.350000000
C         1.844634110      2.485000000     23.350000000
C        19.061219140     30.885000000     23.350000000
C        23.980243430     11.005000000     23.350000000
S         9.223170550     11.005000000     23.350000000
C         1.844634110     23.785000000     23.350000000
C        15.371950920     33.015000000     23.350000000
C        30.129023800     17.395000000     23.350000000
C         9.223170550     30.885000000     23.350000000
C         5.533902330     13.135000000     23.350000000
C        23.980243430     13.845000000     23.350000000
C        25.209999500     21.655000000     23.350000000
C         6.763658400     11.005000000     23.350000000
C        15.371950920      0.355000000     23.350000000
C        15.371950920      4.615000000     23.350000000
C         4.304146260      9.585000000     23.350000000
C        12.912438770     15.975000000     23.350000000
C         9.223170550      2.485000000     23.350000000
C        28.899267720     26.625000000     23.350000000
P        17.831463060      4.615000000     23.350000000
C         9.223170550     13.845000000     23.350000000
C        11.682682700      6.745000000     23.350000000
C        30.129023800     33.015000000     23.350000000
C         5.533902330      7.455000000     23.350000000
P        11.682682700      5.325000000     23.350000000
C        17.831463060     20.235000000     23.350000000
C        27.669511650     21.655000000     23.350000000
C        11.682682700     28.045000000     23.350000000
C        11.682682700     26.625000000     23.350000000
C         6.763658400      5.325000000     23.350000000
C         3.074390180      4.615000000     23.350000000
C        16.601706990      9.585000000     23.350000000
C         3.074390180      7.455000000     23.350000000
C        12.912438770     30.175000000     23.350000000
S         7.993414480      8.875000000     23.350000000
C         0.614878040     28.755000000     23.350000000
C         0.614878040     24.495000000     23.350000000
C        12.912438770     20.235000000     23.350000000
C         0.614878040      3.195000000     23.350000000
C        17.831463060      7.455000000     23.350000000
C        14.142194840      2.485000000     23.350000000
C        30.129023800     30.175000000     23.350000000
C        16.601706990     28.045000000     23.350000000
C        15.371950920      7.455000000     23.350000000
C         4.304146260      5.325000000     23.350000000
S         3.074390180     13.135000000     23.350000000
C        23.980243430     23.785000000     23.350000000
C        21.520731280      9.585000000     23.350000000
C        11.682682700     19.525000000     23.350000000
C        26.439755580     22.365000000     23.350000000
C        19.061219140     32.305000000     23.350000000
C        12.912438770     28.755000000     23.350000000
C        16.601706990     22.365000000     23.350000000
S        23.980243430     22.365000000     23.350000000
C        31.358779870      6.745000000     23.350000000
C        21.520731280     19.525000000     23.350000000
C         7.993414480     15.975000000     23.350000000
C         0.614878040      7.455000000     23.350000000
C        10.452926620     17.395000000     23.350000000
C         7.993414480      7.455000000     23.350000000
C        27.669511650      0.355000000     23.350000000
C         9.223170550     32.305000000     23.350000000
C        15.371950920     25.915000000     23.350000000
C        20.290975210     20.235000000     23.350000000
C        12.912438770      0.355000000     23.350000000
C         1.844634110      6.745000000     23.350000000
C        31.358779870      2.485000000     23.350000000
C        30.129023800      0.355000000     23.350000000
S         4.304146260     22.365000000     23.350000000
C         3.074390180      8.875000000     23.350000000
C        28.899267720     13.845000000     23.350000000
C         1.844634110     30.885000000     23.350000000
C         6.763658400      6.745000000     23.350000000
C        25.209999500      0.355000000     23.350000000
C        28.899267720      2.485000000     23.350000000
C         3.074390180     17.395000000     23.350000000
C        20.290975210      8.875000000     23.350000000
C         3.074390180     11.715000000     23.350000000
C         1.844634110      1.065000000     23.350000000
C        28.899267720     22.365000000     23.350000000
C        30.129023800     21.655000000     23.350000000
C        31.358779870     23.785000000     23.350000000
C         6.763658400     30.885000000     23.350000000
S         3.074390180     20.235000000     23.350000000
C        16.601706990     26.625000000     23.350000000
C        10.452926620     15.975000000     23.350000000
C        28.899267720     15.265000000     23.350000000
C        27.669511650     24.495000000     23.350000000
C         0.614878040     33.015000000     23.350000000
C        17.831463060     21.655000000     23.350000000
C        19.061219140      9.585000000     23.350000000
C        11.682682700      1.065000000     23.350000000
P         4.304146260     19.525000000     23.350000000
C         9.223170550      5.325000000     23.350000000
C        15.371950920      3.195000000     23.350000000
C         7.993414480     13.135000000     23.350000000
C         4.304146260     13.845000000     23.350000000
C        11.682682700     13.845000000     23.350000000
C         9.223170550      1.065000000     23.350000000
C        16.601706990     23.785000000     23.350000000
C        15.371950920     20.235000000     23.350000000
C         5.533902330      3.195000000     23.350000000
C        31.358779870     26.625000000     23.350000000
C         0.614878040     20.235000000     23.350000000
C         4.304146260     32.305000000     23.350000000
C        10.452926620      8.875000000     23.350000000
S        11.682682700     18.105000000     23.350000000
C        10.452926620     11.715000000     23.350000000
C        28.899267720     32.305000000     23.350000000
C         5.533902330      4.615000000     23.350000000
C        20.290975210     30.175000000     23.350000000
C        30.129023800     25.915000000     23.350000000
C         7.993414480     11.715000000     23.350000000
C         7.993414480     28.755000000     23.350000000
C        12.912438770     24.495000000     23.350000000
C        14.142194840      9.585000000     23.350000000
C         0.614878040     17.395000000     23.350000000
C        16.601706990     30.885000000     23.350000000
C         3.074390180      3.195000000     23.350000000
C        19.061219140     28.045000000     23.350000000
C        12.912438770     21.655000000     23.350000000
C        16.601706990      6.745000000     23.350000000
C         4.304146260     30.885000000     23.350000000
C         0.614878040     25.915000000     23.350000000
C        14.142194840     26.625000000     23.350000000
C        11.682682700     11.005000000     23.350000000
C         3.074390180     15.975000000     23.350000000
C        28.899267720     30.885000000     23.350000000
C         7.993414480      3.195000000     23.350000000
C        19.061219140     11.005000000     23.350000000
C        28.899267720      9.585000000     23.350000000
C        11.682682700      9.585000000     23.350000000
C        10.452926620      3.195000000     23.350000000
C        28.899267720     11.005000000     23.350000000
C        12.912438770      7.455000000     23.350000000
C         0.614878040      0.355000000     23.350000000
C        25.209999500     13.135000000     23.350000000
C        25.209999500     25.915000000     23.350000000
C        11.682682700     23.785000000     23.350000000
C        31.358779870      9.585000000     23.350000000
C        14.142194840     28.045000000     23.350000000
C        30.129023800     20.235000000     23.350000000
C         9.223170550     15.265000000     23.350000000
C        23.980243430      2.485000000     23.350000000
C        14.142194840      5.325000000     23.350000000
C        26.439755580     28.045000000     23.350000000
C        23.980243430     26.625000000     23.350000000
C        26.439755580     13.845000000     23.350000000
C        12.912438770     25.915000000     23.350000000
C        11.682682700     22.365000000     23.350000000
P        10.452926620     33.015000000     23.350000000
C        27.669511650      3.195000000     23.350000000
C        31.358779870     32.305000000     23.350000000
C        31.358779870     15.265000000     23.350000000
C        31.358779870     19.525000000     23.350000000
C        21.520731280     28.045000000     23.350000000
C        10.452926620     13.135000000     23.350000000
C        28.899267720     28.045000000     23.350000000
C         1.844634110     11.005000000     23.350000000
C        14.142194840      6.745000000     23.350000000
P        28.899267720     18.105000000     23.350000000
C        11.682682700     15.265000000     23.350000000
C        12.912438770      4.615000000     23.350000000
C        12.912438770     17.395000000     23.350000000
C        27.669511650     25.915000000     23.350000000
C         1.844634110     13.845000000     23.350000000
C        17.831463060      8.875000000     23.350000000
C         9.223170550      9.585000000     23.350000000
C         3.074390180     21.655000000     23.350000000
C         7.993414480      0.355000000     23.350000000
C        15.371950920     17.395000000     23.350000000
C        14.142194840     22.365000000     23.350000000
C        12.912438770     13.135000000     23.350000000
C        14.142194840     11.005000000     23.350000000
C        30.129023800     11.715000000     23.350000000
C        20.290975210     13.135000000     23.350000000
C         0.614878040      4.615000000     23.350000000
C        17.831463060     28.755000000     23.350000000
C        31.358779870      1.065000000     23.350000000
C        11.682682700      2.485000000     23.350000000
C         1.844634110     22.365000000     23.350000000
C        10.452926620     21.655000000     23.350000000
C         6.763658400      9.585000000     23.350000000
P        22.750487360      0.355000000     23.350000000
C        16.601706990     19.525000000     23.350000000
S        31.358779870      5.325000000     23.350000000
C        10.452926620      0.355000000     23.350000000
C        19.061219140     18.105000000     23.350000000
C        26.439755580     23.785000000     23.350000000
C        17.831463060     30.175000000     23.350000000
C        26.439755580     11.005000000     23.350000000
C         1.844634110     15.265000000     23.350000000
C         7.993414480     33.015000000     23.350000000
C        10.452926620     24.495000000     23.350000000
C        30.129023800      4.615000000     23.350000000
C        31.358779870     13.845000000     23.350000000
C        22.750487360     11.715000000     23.350000000
C        12.912438770      8.875000000     23.350000000
C        25.209999500     11.715000000     23.350000000
C        31.358779870     18.105000000     23.350000000
C        31.358779870     22.365000000     23.350000000
C         1.844634110      5.325000000     23.350000000
C        27.669511650     20.235000000     23.350000000
C         1.844634110     18.105000000     23.350000000
C        16.601706990     18.105000000     23.350000000
C         9.223170550     28.045000000     23.350000000
C        30.129023800     15.975000000     23.350000000
C        31.358779870     30.885000000     23.350000000
C        26.439755580      2.485000000     23.350000000
C        28.899267720      1.065000000     23.350000000
C         3.074390180     30.175000000     23.350000000
C         7.993414480     30.175000000     23.350000000
C        28.899267720     19.525000000     23.350000000
C        14.142194840     18.105000000     23.350000000
C        27.669511650     30.175000000     23.350000000
C         4.304146260     11.005000000     23.350000000
C        10.452926620     30.175000000     23.350000000
C         0.614878040     30.175000000     23.350000000
C        14.142194840      1.065000000     23.350000000
C         9.223170550     26.625000000     23.350000000
C         0.614878040      8.875000000     23.350000000
C         4.304146260     18.105000000     23.350000000
C        30.129023800     24.495000000     23.350000000
C        15.371950920     24.495000000     23.350000000
C        23.980243430      9.585000000     23.350000000
C        21.520731280     11.005000000     23.350000000
S        20.290975210     11.715000000     23.350000000
C        22.750487360     21.655000000     23.350000000
C        10.452926620      4.615000000     23.350000000
C        28.899267720     23.785000000     23.350000000
C         5.533902330     33.015000000     23.350000000
C         6.763658400     13.845000000     23.350000000
C        11.682682700     30.885000000     23.350000000
C         6.763658400     32.305000000     23.350000000
C        16.601706990     32.305000000     23.350000000
C        15.371950920     21.655000000     23.350000000
C        30.129023800      3.195000000     23.350000000
C        26.439755580     26.625000000     23.350000000
P        20.290975210     28.755000000     23.350000000
C        15.371950920      8.875000000     23.350000000
C        22.750487360     20.235000000     23.350000000
C         5.533902330      0.355000000     23.350000000
C        30.129023800      8.875000000     23.350000000
C        10.452926620     25.915000000     23.350000000
C        27.669511650     28.755000000     23.350000000
C         5.533902330     30.175000000     23.350000000
P         4.304146260      1.065000000     23.350000000
C        12.912438770     11.715000000     23.350000000
C         0.614878040     13.135000000     23.350000000
C         5.533902330     11.715000000     23.350000000
C        17.831463060     17.395000000     23.350000000
C        10.452926620      7.455000000     23.350000000
C        10.452926620     28.755000000     23.350000000
C         0.614878040     15.975000000     23.350000000
F         6.763658400      1.065000000     23.350000000
F        31.358779870     11.005000000     23.350000000
F        14.142194840     19.525000000     23.350000000
F         9.223170550     23.785000000     23.350000000
F        14.142194840     23.785000000     23.350000000
F         3.074390180     33.015000000     23.350000000
F         6.763658400      2.485000000     23.350000000
F        30.129023800     28.755000000     23.350000000
F        30.129023800     13.135000000     23.350000000
F        16.601706990      5.325000000     23.350000000
F         0.614878040     11.715000000     23.350000000
F        27.669511650     33.015000000     23.350000000
F         7.993414480      4.615000000     23.350000000
F         5.533902330     21.655000000     23.350000000
F        27.669511650     13.135000000     23.350000000
N        11.682682700     32.305000000     23.350000000
N        22.750487360      8.875000000     23.350000000
N         1.844634110     19.525000000     23.350000000
N         3.074390180      0.355000000     23.350000000
N        15.371950920     30.175000000     23.350000000
N         4.304146260      2.485000000     23.350000000
N        23.980243430      1.065000000     23.350000000
N        26.439755580      1.065000000     23.350000000
N         1.844634110      9.585000000     23.350000000
N        25.209999500     24.495000000     23.350000000
O        15.986830000     15.879990674     49.000000000
O        15.986830000     18.200009326     49.000000000
C_CO     15.986830000     17.040000000     49.000000000
