       467
467     70.000000000     70.000000000    200.000000000
Ar       59.119204592     47.383323672     23.451124356
Ar       67.074240997      6.520129033     23.322590640
Ar       61.114799704     55.295387744     23.223698781
Ar       11.998044509     22.152671635     23.433705612
Ar       44.708875322     58.817315704     23.325800493
Ar       62.316401982     69.333694736     23.280232908
Ar       58.516804838     59.718103601    176.711405472
Ar       42.423115691     56.156549050    176.677059102
Ar       33.283940802      0.032317379    176.645907338
Ar       25.617853146     12.807787987     23.574961605
Ar       48.031545592     48.283036936    176.461246211
Ar       27.231981478     14.413084253    176.722291774
Ar       44.118890862     46.424756941    176.545603004
Ar       22.560330180     47.596149197     23.310129028
Ar        8.769466978      2.476667302     23.365797017
Ar       48.461482745     32.414800076    176.426028808
Ar       36.350534360     67.762143196    176.647681228
Ar       47.127315067     66.839613419    176.571549148
Ar       46.082371549     14.424903407     23.495985509
Ar       42.834765827     17.244809141     23.428433865
Ar       26.135245888     58.231433585     23.155548484
Ar       32.275820437     39.684228585     23.373353164
Ar       42.027339449     13.225930527     23.282817357
Ar       16.770709907     68.685527423     23.353132688
Ar       16.444756610     14.931957607     23.566764049
Ar        5.572592441     31.570358902    176.762302449
Ar       58.517623343     63.448211934    176.691020271
Ar        4.053383579     54.814525148    176.391566605
Ar       64.971842210      3.389469854     23.353426859
Ar       44.470196715     30.678715153    176.266347128
Ar       51.043276401     39.898632023    176.839878883
Ar        4.885615848     51.324748713    176.186471779
Ar        6.703356527     36.510702347     23.441239671
Ar       35.790563250      3.540576737     23.315513846
Ar       42.369716045     12.800134385    176.243047182
Ar       30.342625817     26.177294140     23.410108218
Ar        3.795326751     39.980086060     23.386342408
Ar       45.438753796     27.538371906     23.211242526
Ar       11.554708628      5.409235373    176.450509006
Ar       39.168097886     65.342828610    176.221446654
Ar       56.972273735     10.877202626     23.296077902
Ar       41.373631786     29.339024787     23.347949774
Ar        6.381346222     21.121083277     23.329863273
Ar       51.032102138     57.134827527    176.549801893
Ar       25.173858760     52.549529728    176.230897396
Ar        9.434627773     68.649500989     23.919019179
Ar       36.859204798     18.476719532    176.003611828
Ar       64.468712525     55.649198649    176.455946119
Ar       47.410879782     18.660543875    176.509341619
Ar       65.504088812     34.601466045    176.245676768
Ar       38.169589773     34.267871493    176.723308837
Ar       37.984163969     29.589888249     23.367957770
Ar       21.897047333     25.119491928    176.595700154
Ar       12.243721461     20.850878021    176.631542954
Ar       68.839630070     49.149495195     23.463648988
Ar       62.172161393     50.862984952     23.466027265
Ar       54.941891177      1.393904369     23.106135846
Ar       35.669702453      7.788350548     23.717192781
Ar       40.950697488     56.933744155     23.450636762
Ar        3.848719401     19.806426293    176.772690948
Ar       17.399005615     55.036757803     23.398109114
Ar       17.456961157     58.936451332     23.677772855
Ar       68.484043445     56.082211833    176.455980613
Ar        6.014049930     15.535772799     23.355081079
Ar        8.867902896     18.439950924     23.350743105
Ar       18.744995989     24.265245964     23.370525208
Ar       46.934797787     37.662626031    176.667566713
Ar       32.368166126     61.350394781     23.587242027
Ar       54.129851559     33.358132261    176.561772803
Ar       15.154926735     62.084587553     23.433726811
Ar       27.672182764     34.937073151     23.292871189
Ar       58.046641217     40.607424362    176.354579858
Ar       47.998868738      6.982762977     23.575515600
Ar       60.747541459     55.295008770    176.131158666
Ar       20.749955485     20.464301716     23.767272525
Ar        0.968150402     14.968041760     23.462225120
Ar       67.250811045     18.441310326    176.407803307
Ar       22.364621136     67.914449490    176.777553816
Ar       29.584657981     20.539114722    176.684823597
Ar       62.456272219     60.034938885    176.554632503
Ar       63.984452443      4.588625294    176.648792347
Ar       21.034595285     47.556724396    176.344179135
Ar       14.050931138     28.067203277    176.737320200
Ar       67.217806273      7.331038768    176.579134503
Ar       35.787448873     31.104394698    176.698340889
Ar       59.470818723     25.837832570     23.549543737
Ar       46.415961888     10.682267020     23.493231912
Ar       55.828918316     60.715381024     23.536567829
Ar       24.792836803     38.843984523     23.721955419
Ar       45.447434722     63.523430623     23.527891213
Ar       31.547739054      3.381548474     23.318941289
Ar       28.528550910     53.635219502    176.710814298
Ar       29.093058021     32.289878222    176.203471189
Ar       28.488571643     65.190850361     23.600112535
Ar       53.442556918      7.555743334    176.531571984
Ar       56.021601448     30.045895276    176.585721547
Ar       30.312697579     32.505009570     23.615916354
Ar       18.980581442     33.245365797     23.698557394
Ar       36.547997379     27.418528400    176.800033673
Ar       26.119130824     42.636885867     23.528669024
Ar       51.094784154     10.789639619    176.604978160
Ar       11.321060099      5.883108839     23.500324575
Ar       23.930231347     17.342094536     23.522092123
Ar        9.912459934     56.522053506    176.659512918
Ar       43.238465724      6.781418804     23.401306261
Ar       52.096477933     59.965562199     23.163485090
Ar        8.952707004     66.833340718    176.363588072
Ar        0.540915712      7.243638273     23.344969572
Ar       62.379948274     63.637025004    176.632015635
Ar       21.497070846     11.036382912     23.394486981
Ar       17.005215152     17.526844192    176.630328633
Ar       27.315913482     35.222371862    176.477505861
Ar       21.791596614     30.591345677     23.562053535
Ar        6.844630042     10.147323180     23.115207537
Ar       65.906000134     23.846695188    176.320697787
Ar       31.995573393     10.076086954     23.362353328
Ar       12.038126340     36.723772878     23.583592251
Ar       39.378285319     21.523546164    176.589050730
Ar       13.415320362     26.298238587     23.450855084
Ar       33.238280344     52.108143602     23.566909104
Ar        0.138735335      9.115285100    176.559384311
Ar        3.746387135     37.931953617    176.314719708
Ar       69.578718490     13.220551494    176.483024905
Ar       61.303388767     34.035128748    176.652301941
Ar       46.613457146     31.657233735     23.715843953
Ar       32.687246579     33.737017789    176.385638077
Ar       23.598547491     34.839031682     23.375223507
Ar        3.122759934     48.036254561    176.681470459
Ar       41.658273587     51.451319245    176.293370187
Ar       54.828837148     66.111672115    176.683209155
Ar        7.421125935     60.958643160     23.265566034
Ar       49.951619266     64.894014672     23.389124569
Ar       66.642706136      0.303617761     23.325261138
Ar       26.573048980     47.316414565     23.304100080
Ar       62.844910233     40.882254688    176.369973296
Ar       68.111550905     10.383848583     23.395044188
Ar       65.065896549     53.322997289     23.342694849
Ar       42.227785017     19.771252899    176.654957050
Ar       22.403561429     43.912104106     23.701887537
Ar       48.221671847     61.055143925     23.344211651
Ar       51.745154530     54.724964856     23.192153594
Ar       33.161536468     68.430137237     23.549249758
Ar       68.857973942     60.936008013     23.463562010
Ar       13.751248726     60.702061860    176.419315902
Ar        0.062032370     52.705549803    176.492478355
Ar       39.063803195     45.076418941    176.427168115
Ar       35.488516834     41.401194787     23.516629284
Ar       33.705385971     22.840273353     23.152786027
Ar        3.677341430     10.518127466    176.560798122
Ar       61.313911970      0.978070870    176.641688904
Ar       30.774573439     36.416555820     23.326784846
Ar       55.986167309     52.464618324     23.710765062
Ar       39.906527293     60.466842481    176.550621251
Ar       29.308323480     47.318487894    176.635220220
Ar       29.242697839     68.729322148     23.486338953
Ar        6.226374149     66.078017689     23.493524027
Ar       50.502396433     27.610554965    176.451889816
Ar       66.089048651     58.797600871    176.595776984
Ar        3.716755698     25.408166495     23.439303118
Ar       44.341576751     34.450267087    176.728724592
Ar       10.993849268     57.499009525     23.353924222
Ar       50.095663699      2.269039172    176.587071783
Ar       24.477652203     65.748762942     23.266543256
Ar       35.317185725     37.424165554    176.597788876
Ar       67.812657786     44.768326486    176.031019368
Ar       42.086922221     21.337685628     23.438498715
Ar       62.674588842     23.721318075     23.301960990
Ar       19.589812165     62.321932546     23.555717240
Ar       22.806623137     19.408067797    176.380441368
Ar       68.090638951     69.327130449    176.478116715
Ar       63.737897479     33.206829572     23.331911935
Ar       14.302438054     15.372865814    176.790699771
Ar       49.836589660     57.401480720     23.908285147
Ar       56.678828511     48.179276279    176.541765447
Ar       41.415361725     47.158196050     23.288986772
Ar       23.235925258      2.108098459    176.657748225
Ar        4.280045740     18.668412912     23.550292596
Ar       38.722041486     23.327406723     23.407175939
Ar        8.141610034     53.521562788    176.737270647
Ar       41.448820266     32.587509219    175.359298721
Ar       29.185419008     67.522959763    176.616444577
Ar       68.954388241     31.210358309    176.949992828
Ar        3.557738864     12.032176879     23.522194853
Ar       20.991510844      6.273288351     23.293091168
Ar       10.046000725     39.967726615     23.376498710
Ar       33.974006409     41.835511587    176.767354102
Ar       51.663624639      4.586562272     23.506991517
Ar       28.293750258     39.092941918     23.218026702
Ar       57.298164724      4.392472267     23.255349186
Ar        6.430031348     47.080512262    176.656493076
Ar       34.005875111     29.237784454     23.415417565
Ar       49.930174116     63.102284483    176.486725544
Ar       28.599491482     64.159553484    176.756417192
Ar       17.308668822     63.112091398    176.631861176
Ar       20.864207136     40.100361090     23.548723340
Ar       50.595137669     35.321489636    176.311041247
Ar       53.785688551     19.675778433    176.639850919
Ar       65.006594306     43.070607206     24.085763477
Ar        5.972464290     52.749316031     23.277728530
Ar       26.909414865     18.057639932    176.612388008
Ar       39.275245536     30.147772787    176.449085705
Ar       39.271779102     25.319706053    176.617099631
Ar       53.597145181      0.118015029    176.310435416
Ar       64.804452083      0.574487239    176.677190726
Ar       69.389449932      3.483855486     23.450285341
Ar       39.327487794     35.529107505     23.643121896
Ar       16.521778874     46.856399381    176.421383929
Ar       25.201353152     21.008569412     23.641080725
Ar        5.178367693     66.394044714    176.438497030
Ar       39.077785661     38.708059088    176.349760162
Ar       11.796484156     64.682368880    176.694898615
Ar       37.408620289     41.906054606    176.743251631
Ar        2.887379773     55.309195519     23.335953633
Ar       31.603895472     24.184759517    176.499369207
Ar       40.368480962     48.088823403    176.638822445
Ar       17.767935232     22.771515687    176.716961741
Ar       68.407032864     41.452700055     23.167659793
Ar       13.749973192     10.286673408     23.402436554
Ar       66.455287238     24.089985551     23.404616745
Ar       66.029740239     62.829650266    176.321788300
Ar       18.449554173     50.203266810    176.847932146
Ar       55.420442039     56.266183702     23.523571736
Ar        7.059817937      0.020366989    176.511158634
Ar       12.008615632     15.266684761     23.870106474
Ar        0.378670473     23.064145818     23.474747837
Ar       41.681134077     25.397797132     23.605906468
Ar       55.509618377     18.080922016     23.298322901
Ar       13.963593174     56.464658856    176.895471716
Ar       54.131376459     59.394053811    176.685370181
Ar       69.282286200     53.437584355     23.251326835
Ar       63.118228696     10.651343647    176.550667849
Ar       52.089572014     51.080642899     23.418203808
Ar       10.945438054     49.750069740     23.983669273
Ar       64.756132576     27.708197243     23.404841027
Ar       63.507307192     58.148457500     23.672005509
Ar       23.858440787     51.752045419     23.469030081
Ar       23.705259168     11.987615474    176.655614435
Ar       40.295975143     10.308365725     23.799284009
Ar       17.066702618     59.200873987    176.599220707
Ar        7.519259692      5.981971670     23.349938074
Ar       37.382717300     58.027459983    176.322462504
Ar       37.902395854     51.240167010    176.336214623
Ar       37.249846776     33.010853465     23.482657548
Ar        9.759887924     53.206105887     23.241395158
Ar       44.031813942      1.393984233     23.381953668
Ar       69.493990360     38.120661628     23.728683231
Ar       67.514031857     45.479006138     23.369997472
Ar       62.172263479     64.758538544     23.242274988
Ar       25.803554346      3.817499543     23.484450779
Ar        9.650574878     49.842616652    176.738244735
Ar       41.781064855     61.827804337     23.456721986
Ar       22.825210349     37.183374471    176.517333248
Ar        9.383929369     29.443021035     23.502384620
Ar       19.460188835     50.247558871     23.355777481
Ar       61.346778140     36.711454611     23.320644587
Ar       41.735434995      6.688239518    176.217783948
Ar       58.220461777     52.248436935    176.638066117
Ar       16.684318872      2.537407246     23.314670145
Ar        8.077475415     20.532247490    176.508779213
Ar       42.259868531     27.927236211    176.589629361
Ar       13.083884597     48.013583095    176.706083671
Ar       21.349190638     67.950998143     23.544492560
Ar       25.894054305     69.458914217    176.857086792
Ar       42.992934803     38.018786766    176.698368777
Ar       60.454496041      6.662436925    176.702417611
Ar       21.450613386     64.583350483    176.315048025
Ar        3.392156748     59.023154172     23.214809328
Ar       56.221499781     11.595824045    176.587044304
Ar        6.747364054     59.280541796    176.499439450
Ar       21.175404940     53.907472940     23.386624577
Ar       46.262811828     62.752256625    176.601400552
Ar       10.589850215     10.788739261    176.558942363
Ar        7.298705313     56.338504681     23.194867256
Ar       20.550463623     60.494580733    176.837409528
Ar       23.970287969     27.243227234     23.502027827
Ar        1.577152159      2.081421729    176.418135268
Ar       25.985311511     31.605443152     23.404101227
Ar       29.915083821      1.508334709    176.394732014
Ar       50.316952812     46.511635158     23.415896255
Ar       63.465443797     40.071815938     23.152419311
Ar       10.890850468     33.315286867     23.361126198
Ar       35.155947637     23.489110411    176.619608788
Ar       42.908964091     23.064911562    176.602040328
Ar       59.595259467     19.941294715     23.377205634
Ar       11.461152806     64.810606059     23.420667457
Ar       48.673203112      8.109782745    176.567815864
Ar       36.557705472     48.200886067    176.570815740
Ar       29.949140968     50.482695398     23.337466089
Ar       63.655072787     19.685043564     23.407538895
Ar       11.384215403     60.892306984     23.736304507
Ar       69.012223001     65.090918012    176.648466459
Ar       58.562763570     65.104016469     23.508434690
Ar       51.211157793      1.183163229     23.395837858
Ar       30.216193963     46.386548521     23.538264752
Ar       67.971930454     64.708181843     23.470948041
Ar       31.452428824     37.453112776    176.614761375
Ar       45.301617165     67.718255216     23.310554254
Ar       21.552305541     54.403742277    176.752524038
Ar       15.171661708     51.671165167     23.596630902
Ar       42.146848852     42.496000053    176.735958497
Ar       54.564941040     13.601941068     23.523751998
Ar       62.780001518     46.411994236     23.223435510
Ar       37.832567157     59.961279475     23.771817562
Ar       15.988350799     21.787964584     23.302688766
Ar       15.043300333     10.923661371    176.621944206
Ar       49.690029250     17.092618424     23.343066795
Ar        4.510287878     28.631310505     23.770209556
Ar       52.820615616     67.596740032     23.291992676
Ar       25.831570879     44.849896455    176.532190023
Ar       49.754198738     28.740680168     23.331267933
Ar       30.044458682     41.581515983    176.336413237
Ar       60.860563290     12.245586711     23.321275392
Ar        5.863371289     69.475147088     23.516528071
Ar       10.663108969     29.102935789    176.927602791
Ar       45.949786875     19.108693963     23.702829139
Ar       48.939593601     68.597490274     23.268220251
Ar        6.232738729     44.797854550     23.436315715
Ar       25.426047898     65.648993876    176.618069206
Ar       32.438171124     55.580888515    176.662615135
Ar       50.458376698     51.073635718    176.596475340
Ar       33.782202034     45.041892163     23.292654116
Ar       54.614502811     27.849455358     23.600473700
Ar       34.069144960     17.982949200     23.371072162
Ar       63.818200549     44.864174601    176.446504297
Ar       51.817378378     24.394800538     23.345336477
Ar       45.293021960     23.603793766     23.376240240
Ar       37.140668347      9.409096067    176.584195110
Ar        9.968900895     11.667930396     23.271309142
Ar       53.378215640     44.155628414     23.406362882
Ar       55.372741118     16.105828654    176.397031026
Ar       57.162356611     33.561615916     23.707827540
Ar       59.739714552     29.872686054     23.650937999
Ar        3.654297257      6.762896517    176.563773070
Ar       52.754748790     10.596189744     23.829338108
Ar       12.361780314     24.736715112    176.633844157
Ar       55.163231324      6.824002354     23.572994253
Ar       54.420372549     48.531684274     23.491502634
Ar       58.076393328     14.930217331     23.419655208
Ar       57.314795530     20.105867637    176.480877505
Ar       37.809620030     17.466390092     23.447595656
Ar       13.091644413     68.265964469     23.282241044
Ar       60.153626704     58.931548970     23.319830312
Ar       65.218863783     61.893187904     23.555320012
Ar        7.062312365     48.356211494     23.317456021
Ar       67.333052961     16.138958114     23.312799918
Ar       29.919353667     42.910795416     23.666119573
Ar       55.488315700     23.651455500     23.603965862
Ar       55.373512324     54.720990348    176.702092170
Ar       30.536369848     14.158698810     23.988977149
Ar       11.464941709     69.593519757    176.757060657
Ar       19.181141067     27.951526720     23.452384489
Ar       68.006615747     34.080882194     23.447698754
Ar       32.157167385     29.660993444    176.647742086
Ar       20.423170302      1.881555875     23.594776028
Ar       57.676053137     33.124874416    176.476731491
Ar       32.946598044     47.928078036    176.641954130
Ar        3.593537062     15.158725556    176.494562616
Ar       55.563823663     37.356078494    176.696780766
Ar       61.379337767     43.126532991     23.304635021
Ar       47.255773379     25.173739857    176.317959679
Ar       37.486842240     13.657864052     23.580210171
Ar        3.097482684     50.135843659     23.436230948
Ar       23.443994968     15.634564631    176.662237748
Ar       43.089876438     67.154999303    176.279658301
Ar       69.754261767     26.561884800     23.422245291
Ar       37.575244371     45.906873334     23.549249628
Ar       62.651526868     15.332490972     23.386516065
Ar       51.973334001     47.646815990    176.651511525
Ar       61.142624251      2.770605059     23.721185838
Ar       28.901218286     27.800324155    176.721833504
Ar       17.992259261      4.746399950    176.535639731
Ar        1.573619965     42.802656648     23.368238355
Ar       51.946689579     14.191505556    176.325350669
Ar       42.304985447     65.693131385     23.519627377
Ar       59.796712317      8.652164055     23.124511689
Ar       69.995999393     25.177456477    176.817555235
Ar       64.899050730     30.560286682    176.666828622
Ar       57.211039656     39.932337720     23.676853858
Ar       46.549311391      0.619584766    176.594888144
Ar       63.156657137      7.512739962     23.740612621
Ar        6.459360897     35.161711285    176.313747649
Ar       33.720676353     33.863245261     23.340347770
Ar       34.588410544     61.213145433    176.310500932
Ar       20.191272662     14.681101580     23.409223261
Ar       62.727841594     67.458783088    176.380040785
Ar       45.337996725      6.342338979    176.682756210
Ar       57.222887398      0.533703743    176.621222089
Ar        9.188302582     33.020044273    176.689863114
Ar       11.116669863     14.404182196    176.516153898
Ar       65.106023715     66.981369022     23.603810984
Ar        7.116500989     17.054899764    176.012212216
Ar       42.332188657     63.325214177    176.560301564
Ar       37.814032284     49.922444257     23.475746885
Ar       61.308748614     29.640197199    176.702107270
Ar       27.431166236     23.741289691    176.342079855
Ar        6.826998052     62.917888015    176.698974936
Ar       14.306998558     29.512387419     23.629551948
Ar       35.260847331     37.829238403     23.340949394
Ar       17.585405156     17.869161273     23.244821303
Ar       66.586844364     30.749419983     23.338325031
Ar       37.777456815     54.799806095     23.601253970
Ar       39.838120714      6.249661116     23.658219066
Ar       30.604849667     56.623861705     23.373075794
Ar       48.771690645     21.823781950     23.449448612
Ar       47.496408808      2.399504259     23.288973111
Ar       18.607514914     67.021732620    176.699918201
Ar       13.753512449     18.329266303     23.792173936
Ar        2.179692882     28.174128193    176.613336888
Ar       15.015010289     34.036027341     23.383646002
Ar       59.265946553     67.318425822    176.690585305
Ar       47.116236431     42.945199391    176.339421647
Ar       45.583573925     48.999334734     23.694459005
Ar       69.201894849     19.591778388     23.421804372
Ar       63.393704274     37.229410115    176.720170435
Ar       32.944282878     66.188044132    176.705400818
Ar       24.004199446      8.391986028     23.406713771
Ar       27.189597083     54.410567363     23.970668322
Ar       52.674112926     20.748870009     23.446540617
Ar       29.864696626     11.640082336    176.726236284
Ar       46.194016008     51.984628869    176.643557598
Ar       57.855539898     43.677705490     23.262863177
Ar       23.321953447     32.336135208    176.618072298
Ar       48.015488109     25.441524284     23.697747253
Ar       60.425469960     47.732174991    176.627671471
Ar       51.819226595     37.827054755     23.161260973
Ar        1.352724590     68.052917178    176.454531322
Ar       26.655545174      2.958977584    176.601185787
Ar       13.114619742      1.814481033     23.583470762
Ar        6.823483997      8.227842596    176.794413300
Ar       44.174804620     54.840567021     23.573913961
Ar       67.198243690     27.832573904    176.452695617
Ar       15.686964064      0.752569916    176.600441582
Ar       18.465559808     32.962455552    176.738281195
Ar       18.055267195      8.814923238    176.663439095
Ar       41.976065428     52.006360845     23.647566971
Ar       34.808391133     57.475949062     23.409274802
Ar       28.861856775     29.458919720     23.539217094
Ar       50.121913428     13.284364996     23.648336386
Ar       67.265540940     53.731353912    174.036552263
Ar       21.428593622     58.908342829     23.197452646
Ar       56.027444577     44.161343303    176.350797004
Ar       47.051661256     56.774927644    176.653523292
Ar       18.008189581     26.480056832    176.675017219
Ar       65.384386319     12.353134605     23.493422623
Ar       32.359555431     51.736870472    176.433993093
Ar       60.164052333     15.994435210    176.649833194
Ar       36.353944961     26.119572998     23.520439463
Ar       29.432453835      5.537416243    176.595539125
Ar       14.804091258     66.186252447    176.230655358
Ar        0.106779818      5.594865542    176.526972605
Ar       53.940370426     50.977853181    176.645809403
Ar       67.699639108      3.085036534    176.686621020
Ar       61.894786650     50.879757840    176.302994468
Ar       19.518543562      0.652753722    176.474701716
Ar       25.442130164     29.071199883    176.255201056
Ar        9.019029958      2.910383460    176.432902677
Ar       43.868401979     34.492868942     23.235891454
Ar        7.229998716     12.407524410    176.726516509
Ar       28.816061865     60.392873308     23.956451887
Ar       37.936903503     63.762703984     23.407021608
Ar        0.743048120     17.445585520    176.407468425
Ar       33.781832031     48.713537409     23.244321265
Ar       27.456760064      7.250957498     23.387271353
Ar       48.625917130     34.897426287     23.421142985
Ar       67.551647058     37.857999595    176.465218860
Ar       46.184725712     33.344293803    173.884087445
Ar       16.875506010     37.971686655    176.564473138
