        10
10     70.000000000     70.000000000    200.000000000
Ar       26.000000000     26.000000000     91.000000000
Ar       28.000000000     26.000000000     91.000000000
Ar       30.000000000     26.000000000     91.000000000
Ar       32.000000000     26.000000000     91.000000000
Ar       34.000000000     26.000000000     91.000000000
Ar       36.000000000     26.000000000     91.000000000
Ar       38.000000000     26.000000000     91.000000000
Ar       40.000000000     26.000000000     91.000000000
Ar       42.000000000     26.000000000     91.000000000
Ar       44.000000000     26.000000000     91.000000000
